      13
 i =  900000, E =       -1.9411044100
  H         2.5534168235      -20.4534615492        6.5891136895
  H         2.8625204999      -19.9087344379        8.1540295500
  H         4.1039952787      -19.8747628643        6.8052077068
  H         5.9775389990      -20.3813576404        5.5417744594
  H         6.4049287478      -19.0267612978        6.1135108300
  H         1.8204433785      -20.9160667217        4.6190079802
  H         1.3623066823      -22.2210256227        5.3667547797
  H         1.4049929443      -20.1063695554        9.5222415778
  H         2.9357518458      -20.5160133719       10.1579478431
  O         3.1947558366      -19.9218376915        7.1240689889
  O         5.6365458571      -19.7039671747        6.1223420324
  O         1.8938348065      -21.4002663428        5.4550430360
  O         2.2768693337      -20.4560200277        9.3166318568
      13
 i =  900080, E =       -1.9381889058
  H         2.6836363449      -20.5039729723        6.5069907540
  H         3.2024121344      -19.9480422040        8.0954199544
  H         4.2496976528      -19.8261200087        6.5590345366
  H         5.9842678011      -20.5494048001        5.7847300833
  H         6.2983048274      -19.2172717106        6.5111434979
  H         1.9577144377      -21.2632282546        4.4456493494
  H         1.5414970235      -22.1090632988        5.5966306822
  H         1.6076096472      -19.8940847148        9.6845966711
  H         2.7152093131      -20.5534186586       10.1655726639
  O         3.2354624386      -19.8493320769        7.0611700679
  O         5.6072419688      -19.7815821145        6.1042775168
  O         1.8275416123      -21.2559867150        5.3641017883
  O         2.3244152120      -20.4076940210        9.3825912913
